<?xml version='1.0' encoding='UTF-8'?>
<additional xmlns:xsi="http://www.w3.org/2001/XMLSchema-instance" xsi:noNamespaceSchemaLocation="http://sumo.dlr.de/xsd/additional_file.xsd">
  <vType id="inflow_highway_human_r" accel="2.6" decel="4.5" sigma="0.5" tau="1.0" minGap="2.5" maxSpeed="30" speedFactor="1.0" speedDev="0.1" impatience="0.5" carFollowModel="IDM" laneChangeModel="SL2015" lcStrategic="1.0" lcCooperative="1.0" lcSpeedGain="1.0" lcKeepRight="0" lcLookaheadLeft="2.0" lcSpeedGainRight="1.0" lcSublane="1.0" lcPushy="0" lcPushyGap="0.6" lcAssertive="5.0" lcImpatience="1e-08" lcTimeToImpatience="1000000000000.0" lcAccelLat="1.0"/>
  <vType id="inflow_highway_human_l" accel="2.6" decel="4.5" sigma="0.5" tau="1.0" minGap="2.5" maxSpeed="30" speedFactor="1.0" speedDev="0.1" impatience="0.5" carFollowModel="IDM" laneChangeModel="SL2015" lcStrategic="1.0" lcCooperative="1.0" lcSpeedGain="1.0" lcKeepRight="0" lcLookaheadLeft="2.0" lcSpeedGainRight="1.0" lcSublane="1.0" lcPushy="0" lcPushyGap="0.6" lcAssertive="5.0" lcImpatience="1e-08" lcTimeToImpatience="1000000000000.0" lcAccelLat="1.0"/>
  <vType id="inflow_highway_rl_l" accel="2.6" decel="4.5" sigma="0.5" tau="1.0" minGap="2.5" maxSpeed="30" speedFactor="1.0" speedDev="0.1" impatience="0.5" carFollowModel="IDM" laneChangeModel="SL2015" lcStrategic="1.0" lcCooperative="1.0" lcSpeedGain="1.0" lcKeepRight="0" lcLookaheadLeft="2.0" lcSpeedGainRight="1.0" lcSublane="1.0" lcPushy="0" lcPushyGap="0.6" lcAssertive="5.0" lcImpatience="1e-08" lcTimeToImpatience="1000000000000.0" lcAccelLat="1.0"/>
  <vType id="inflow_merge_human_r" accel="2.6" decel="4.5" sigma="0.5" tau="1.0" minGap="2.5" maxSpeed="30" speedFactor="1.0" speedDev="0.1" impatience="0.5" carFollowModel="IDM" laneChangeModel="SL2015" lcStrategic="1.0" lcCooperative="1.0" lcSpeedGain="1.0" lcKeepRight="0" lcLookaheadLeft="2.0" lcSpeedGainRight="1.0" lcSublane="1.0" lcPushy="0" lcPushyGap="0.6" lcAssertive="5.0" lcImpatience="1e-08" lcTimeToImpatience="1000000000000.0" lcAccelLat="1.0"/>
</additional>
