<?xml version='1.0' encoding='UTF-8'?>
<configuration xmlns:xsi="http://www.w3.org/2001/XMLSchema-instance" xsi:noNamespaceSchemaLocation="http://sumo.dlr.de/xsd/sumoConfiguration.xsd">
  <input>
    <net-file value="multiagent_yulin_2000_1400_lanechange_left_av_time_headway_eta1_0.9_eta2_0.1_20220403-2240331649043633.9686909.net.xml"/>
    <route-files value="multiagent_yulin_2000_1400_lanechange_left_av_time_headway_eta1_0.9_eta2_0.1_20220403-2240331649043633.9686909.rou.xml"/>
    <additional-files value="multiagent_yulin_2000_1400_lanechange_left_av_time_headway_eta1_0.9_eta2_0.1_20220403-2240331649043633.9686909.add.xml"/>
    <gui-settings-file value="multiagent_yulin_2000_1400_lanechange_left_av_time_headway_eta1_0.9_eta2_0.1_20220403-2240331649043633.9686909.gui.cfg"/>
  </input>
  <time>
    <begin value="0"/>
  </time>
</configuration>
