<?xml version='1.0' encoding='UTF-8'?>
<configuration xmlns:xsi="http://www.w3.org/2001/XMLSchema-instance" xsi:noNamespaceSchemaLocation="http://sumo.dlr.de/xsd/sumoConfiguration.xsd">
  <input>
    <net-file value="multiagent_yulin_rl_left_lanechange_merge4_Full_Collaborate_lr_schedule_eta1_0.9_eta2_0.1_20211229-1920171640827217.0689845.net.xml"/>
    <route-files value="multiagent_yulin_rl_left_lanechange_merge4_Full_Collaborate_lr_schedule_eta1_0.9_eta2_0.1_20211229-1920171640827217.0689845.rou.xml"/>
    <additional-files value="multiagent_yulin_rl_left_lanechange_merge4_Full_Collaborate_lr_schedule_eta1_0.9_eta2_0.1_20211229-1920171640827217.0689845.add.xml"/>
    <gui-settings-file value="multiagent_yulin_rl_left_lanechange_merge4_Full_Collaborate_lr_schedule_eta1_0.9_eta2_0.1_20211229-1920171640827217.0689845.gui.cfg"/>
  </input>
  <time>
    <begin value="0"/>
  </time>
</configuration>
