<?xml version='1.0' encoding='UTF-8'?>
<configuration xmlns:xsi="http://www.w3.org/2001/XMLSchema-instance" xsi:noNamespaceSchemaLocation="http://sumo.dlr.de/xsd/sumoConfiguration.xsd">
  <input>
    <net-file value="yulin_random_placement_multiagent_Even_Avp30_Main2000_Merge200_highway_merge4_Full_Collaborate_lr_schedule_eta1_0.9_eta2_0.1_20220403-2200411649041241.8222048.net.xml"/>
    <route-files value="yulin_random_placement_multiagent_Even_Avp30_Main2000_Merge200_highway_merge4_Full_Collaborate_lr_schedule_eta1_0.9_eta2_0.1_20220403-2200411649041241.8222048.rou.xml"/>
    <additional-files value="yulin_random_placement_multiagent_Even_Avp30_Main2000_Merge200_highway_merge4_Full_Collaborate_lr_schedule_eta1_0.9_eta2_0.1_20220403-2200411649041241.8222048.add.xml"/>
    <gui-settings-file value="yulin_random_placement_multiagent_Even_Avp30_Main2000_Merge200_highway_merge4_Full_Collaborate_lr_schedule_eta1_0.9_eta2_0.1_20220403-2200411649041241.8222048.gui.cfg"/>
  </input>
  <time>
    <begin value="0"/>
  </time>
</configuration>
