<?xml version='1.0' encoding='UTF-8'?>
<configuration xmlns:xsi="http://www.w3.org/2001/XMLSchema-instance" xsi:noNamespaceSchemaLocation="http://sumo.dlr.de/xsd/netconvertConfiguration.xsd">
  <input>
    <node-files value="multiagent_yulin_rl_left_lanechange_merge4_Full_Collaborate_lr_schedule_eta1_0.9_eta2_0.1_20211229-1926111640827571.5876577.nod.xml"/>
    <edge-files value="multiagent_yulin_rl_left_lanechange_merge4_Full_Collaborate_lr_schedule_eta1_0.9_eta2_0.1_20211229-1926111640827571.5876577.edg.xml"/>
    <type-files value="multiagent_yulin_rl_left_lanechange_merge4_Full_Collaborate_lr_schedule_eta1_0.9_eta2_0.1_20211229-1926111640827571.5876577.typ.xml"/>
  </input>
  <output>
    <output-file value="multiagent_yulin_rl_left_lanechange_merge4_Full_Collaborate_lr_schedule_eta1_0.9_eta2_0.1_20211229-1926111640827571.5876577.net.xml"/>
  </output>
  <processing>
    <no-internal-links value="false"/>
    <no-turnarounds value="true"/>
  </processing>
</configuration>
