<?xml version='1.0' encoding='UTF-8'?>
<configuration xmlns:xsi="http://www.w3.org/2001/XMLSchema-instance" xsi:noNamespaceSchemaLocation="http://sumo.dlr.de/xsd/netconvertConfiguration.xsd">
  <input>
    <node-files value="multiagent_yulin_2000_1400_lanechange_left_basic_five_eta1_0.9_eta2_0.1_20220402-1730381648938638.5749304.nod.xml"/>
    <edge-files value="multiagent_yulin_2000_1400_lanechange_left_basic_five_eta1_0.9_eta2_0.1_20220402-1730381648938638.5749304.edg.xml"/>
    <type-files value="multiagent_yulin_2000_1400_lanechange_left_basic_five_eta1_0.9_eta2_0.1_20220402-1730381648938638.5749304.typ.xml"/>
  </input>
  <output>
    <output-file value="multiagent_yulin_2000_1400_lanechange_left_basic_five_eta1_0.9_eta2_0.1_20220402-1730381648938638.5749304.net.xml"/>
  </output>
  <processing>
    <no-internal-links value="false"/>
    <no-turnarounds value="true"/>
  </processing>
</configuration>
