<?xml version='1.0' encoding='UTF-8'?>
<configuration xmlns:xsi="http://www.w3.org/2001/XMLSchema-instance" xsi:noNamespaceSchemaLocation="http://sumo.dlr.de/xsd/netconvertConfiguration.xsd">
  <input>
    <node-files value="yulin_random_placement_multiagent_Even_Avp30_Main2000_Merge200_highway_merge4_Full_Collaborate_lr_schedule_eta1_0.9_eta2_0.1_20220403-2204171649041457.072862.nod.xml"/>
    <edge-files value="yulin_random_placement_multiagent_Even_Avp30_Main2000_Merge200_highway_merge4_Full_Collaborate_lr_schedule_eta1_0.9_eta2_0.1_20220403-2204171649041457.072862.edg.xml"/>
    <type-files value="yulin_random_placement_multiagent_Even_Avp30_Main2000_Merge200_highway_merge4_Full_Collaborate_lr_schedule_eta1_0.9_eta2_0.1_20220403-2204171649041457.072862.typ.xml"/>
  </input>
  <output>
    <output-file value="yulin_random_placement_multiagent_Even_Avp30_Main2000_Merge200_highway_merge4_Full_Collaborate_lr_schedule_eta1_0.9_eta2_0.1_20220403-2204171649041457.072862.net.xml"/>
  </output>
  <processing>
    <no-internal-links value="false"/>
    <no-turnarounds value="true"/>
  </processing>
</configuration>
