<?xml version="1.0" encoding="UTF-8"?>

<!-- generated on Wed 20 Oct 2021 05:50:27 PM CDT by Eclipse SUMO netedit Version 1.6.0
<configuration xmlns:xsi="http://www.w3.org/2001/XMLSchema-instance" xsi:noNamespaceSchemaLocation="http://sumo.dlr.de/xsd/netconvertConfiguration.xsd">

    <input>
        <sumo-net-file value="i696-three-merges.net.xml"/>
    </input>

    <output>
        <output-file value="i696-three-merges.net.xml"/>
        <output.street-names value="true"/>
    </output>

    <processing>
        <geometry.min-radius.fix.railways value="false"/>
        <geometry.max-grade.fix value="false"/>
        <offset.disable-normalization value="true"/>
        <lefthand value="false"/>
    </processing>

    <junctions>
        <no-turnarounds value="true"/>
        <junctions.corner-detail value="5"/>
        <junctions.limit-turn-speed value="5.5"/>
        <rectangular-lane-cut value="false"/>
    </junctions>

    <pedestrian>
        <walkingareas value="false"/>
    </pedestrian>

    <report>
        <aggregate-warnings value="5"/>
    </report>

</configuration>
-->

<net version="1.6" junctionCornerDetail="5" limitTurnSpeed="5.50" xmlns:xsi="http://www.w3.org/2001/XMLSchema-instance" xsi:noNamespaceSchemaLocation="http://sumo.dlr.de/xsd/net_file.xsd">

    <location netOffset="-291727.60,-4702987.13" convBoundary="2250.75,1601.01,10115.47,4453.64" origBoundary="-83.535679,42.452940,-83.398128,42.524242" projParameter="+proj=utm +zone=17 +ellps=WGS84 +datum=WGS84 +units=m +no_defs"/>

    <type id="highway.bridleway" priority="1" numLanes="1" speed="2.78" allow="pedestrian" oneway="1" width="2.00"/>
    <type id="highway.bus_guideway" priority="1" numLanes="1" speed="27.78" allow="bus" oneway="1"/>
    <type id="highway.cycleway" priority="1" numLanes="1" speed="8.33" allow="bicycle" oneway="0" width="1.00"/>
    <type id="highway.footway" priority="1" numLanes="1" speed="2.78" allow="pedestrian" oneway="1" width="2.00"/>
    <type id="highway.ford" priority="1" numLanes="1" speed="2.78" allow="army" oneway="0"/>
    <type id="highway.living_street" priority="3" numLanes="1" speed="2.78" disallow="tram rail_urban rail rail_electric ship" oneway="0"/>
    <type id="highway.motorway" priority="13" numLanes="2" speed="44.44" allow="private emergency authority army vip passenger hov taxi bus coach delivery truck trailer motorcycle evehicle custom1 custom2" oneway="1"/>
    <type id="highway.motorway_link" priority="12" numLanes="1" speed="22.22" allow="private emergency authority army vip passenger hov taxi bus coach delivery truck trailer motorcycle evehicle custom1 custom2" oneway="1"/>
    <type id="highway.path" priority="1" numLanes="1" speed="2.78" allow="pedestrian bicycle" oneway="1" width="2.00"/>
    <type id="highway.pedestrian" priority="1" numLanes="1" speed="2.78" allow="pedestrian" oneway="1" width="2.00"/>
    <type id="highway.primary" priority="9" numLanes="2" speed="27.78" disallow="tram rail_urban rail rail_electric ship" oneway="0"/>
    <type id="highway.primary_link" priority="8" numLanes="1" speed="22.22" disallow="tram rail_urban rail rail_electric ship" oneway="0"/>
    <type id="highway.raceway" priority="14" numLanes="2" speed="83.33" allow="vip" oneway="0"/>
    <type id="highway.residential" priority="4" numLanes="1" speed="13.89" disallow="tram rail_urban rail rail_electric ship" oneway="0"/>
    <type id="highway.secondary" priority="7" numLanes="2" speed="27.78" disallow="tram rail_urban rail rail_electric ship" oneway="0"/>
    <type id="highway.secondary_link" priority="6" numLanes="1" speed="22.22" disallow="tram rail_urban rail rail_electric ship" oneway="0"/>
    <type id="highway.service" priority="2" numLanes="1" speed="5.56" allow="pedestrian delivery bicycle" oneway="0"/>
    <type id="highway.stairs" priority="1" numLanes="1" speed="1.39" allow="pedestrian" oneway="1" width="2.00"/>
    <type id="highway.step" priority="1" numLanes="1" speed="1.39" allow="pedestrian" oneway="1" width="2.00"/>
    <type id="highway.steps" priority="1" numLanes="1" speed="1.39" allow="pedestrian" oneway="1" width="2.00"/>
    <type id="highway.tertiary" priority="6" numLanes="1" speed="22.22" disallow="tram rail_urban rail rail_electric ship" oneway="0"/>
    <type id="highway.tertiary_link" priority="5" numLanes="1" speed="22.22" disallow="tram rail_urban rail rail_electric ship" oneway="0"/>
    <type id="highway.track" priority="1" numLanes="1" speed="5.56" disallow="tram rail_urban rail rail_electric ship" oneway="0"/>
    <type id="highway.trunk" priority="11" numLanes="2" speed="27.78" disallow="pedestrian bicycle tram rail_urban rail rail_electric ship" oneway="0"/>
    <type id="highway.trunk_link" priority="10" numLanes="1" speed="22.22" disallow="pedestrian bicycle tram rail_urban rail rail_electric ship" oneway="0"/>
    <type id="highway.unclassified" priority="5" numLanes="1" speed="13.89" disallow="tram rail_urban rail rail_electric ship" oneway="0"/>
    <type id="highway.unsurfaced" priority="1" numLanes="1" speed="8.33" disallow="tram rail_urban rail rail_electric ship" oneway="0"/>
    <type id="railway.light_rail" priority="15" numLanes="1" speed="27.78" allow="rail_urban" oneway="1"/>
    <type id="railway.preserved" priority="15" numLanes="1" speed="27.78" allow="rail" oneway="1"/>
    <type id="railway.rail" priority="15" numLanes="1" speed="83.33" allow="rail rail_electric" oneway="1"/>
    <type id="railway.subway" priority="15" numLanes="1" speed="27.78" allow="rail_urban" oneway="1"/>
    <type id="railway.tram" priority="15" numLanes="1" speed="13.89" allow="tram" oneway="1"/>

    <edge id=":4308145956_0" function="internal">
        <lane id=":4308145956_0_0" index="0" allow="private emergency authority army vip passenger hov taxi bus coach delivery truck trailer motorcycle evehicle custom1 custom2" speed="31.29" length="0.10" shape="9362.02,2066.83 9362.02,2066.83"/>
    </edge>
    <edge id=":4308145961_0" function="internal">
        <lane id=":4308145961_0_0" index="0" allow="private emergency authority army vip passenger hov taxi bus coach delivery truck trailer motorcycle evehicle custom1 custom2" speed="31.29" length="0.10" shape="8002.27,3099.01 8002.27,3099.01"/>
    </edge>
    <edge id=":4815187016_0" function="internal">
        <lane id=":4815187016_0_0" index="0" allow="private emergency authority army vip passenger hov taxi bus coach delivery truck trailer motorcycle evehicle custom1 custom2" speed="31.29" length="0.10" shape="6853.60,3544.83 6853.60,3544.83"/>
    </edge>
    <edge id=":4834054130_0" function="internal">
        <lane id=":4834054130_0_0" index="0" allow="private emergency authority army vip passenger hov taxi bus coach delivery truck trailer motorcycle evehicle custom1 custom2" speed="31.29" length="0.29" shape="7883.23,3203.23 7883.03,3203.43"/>
    </edge>
    <edge id=":62290112_0" function="internal">
        <lane id=":62290112_0_0" index="0" allow="private emergency authority army vip passenger hov taxi bus coach delivery truck trailer motorcycle evehicle custom1 custom2" speed="31.29" length="0.26" shape="9122.36,2434.22 9122.18,2434.41"/>
    </edge>
    <edge id=":62339796_0" function="internal">
        <lane id=":62339796_0_0" index="0" allow="private emergency authority army vip passenger hov taxi bus coach delivery truck trailer motorcycle evehicle custom1 custom2" speed="26.75" length="52.41" shape="4080.82,3948.65 4028.65,3953.60"/>
    </edge>
    <edge id=":62339796_1" function="internal">
        <lane id=":62339796_1_0" index="0" allow="private emergency authority army vip passenger hov taxi bus coach delivery truck trailer motorcycle evehicle custom1 custom2" speed="31.29" length="52.43" shape="4080.44,3945.40 4028.65,3953.60"/>
    </edge>
    <edge id=":gneJ1_0" function="internal">
        <lane id=":gneJ1_0_0" index="0" allow="private emergency authority army vip passenger hov taxi bus coach delivery truck trailer motorcycle evehicle custom1 custom2" speed="31.29" length="0.29" shape="3965.55,3961.16 3965.27,3961.20"/>
    </edge>
    <edge id=":gneJ14_0" function="internal">
        <lane id=":gneJ14_0_0" index="0" allow="private emergency authority army vip passenger hov taxi bus coach delivery truck trailer motorcycle evehicle custom1 custom2" speed="31.29" length="34.02" shape="6441.26,3611.75 6434.53,3611.92 6424.25,3612.23 6413.97,3612.67 6407.27,3613.18"/>
    </edge>
    <edge id=":gneJ14_1" function="internal">
        <lane id=":gneJ14_1_0" index="0" allow="private emergency authority army vip passenger hov taxi bus coach delivery truck trailer motorcycle evehicle custom1 custom2" speed="31.29" length="34.02" shape="6440.95,3608.39 6407.27,3613.18"/>
    </edge>
    <edge id=":gneJ17_0" function="internal">
        <lane id=":gneJ17_0_0" index="0" allow="private emergency authority army vip passenger hov taxi bus coach delivery truck trailer motorcycle evehicle custom1 custom2" speed="31.29" length="0.10" shape="6751.12,3564.34 6751.12,3564.34"/>
    </edge>
    <edge id=":gneJ18_0" function="internal">
        <lane id=":gneJ18_0_0" index="0" allow="private emergency authority army vip passenger hov taxi bus coach delivery truck trailer motorcycle evehicle custom1 custom2" speed="31.29" length="50.60" shape="7273.77,3483.53 7223.66,3490.54"/>
    </edge>
    <edge id=":gneJ18_1" function="internal">
        <lane id=":gneJ18_1_0" index="0" allow="private emergency authority army vip passenger hov taxi bus coach delivery truck trailer motorcycle evehicle custom1 custom2" speed="31.29" length="50.60" shape="7273.21,3480.28 7223.66,3490.54"/>
    </edge>
    <edge id=":gneJ22_0" function="internal">
        <lane id=":gneJ22_0_0" index="0" allow="private emergency authority army vip passenger hov taxi bus coach delivery truck trailer motorcycle evehicle custom1 custom2" speed="31.29" length="0.24" shape="7187.01,3496.69 7186.77,3496.73"/>
    </edge>
    <edge id=":gneJ24_0" function="internal">
        <lane id=":gneJ24_0_0" index="0" allow="private emergency authority army vip passenger hov taxi bus coach delivery truck trailer motorcycle evehicle custom1 custom2" speed="31.29" length="0.30" shape="8407.25,2897.32 8406.99,2897.45"/>
    </edge>
    <edge id=":gneJ26_0" function="internal">
        <lane id=":gneJ26_0_0" index="0" allow="private emergency authority army vip passenger hov taxi bus coach delivery truck trailer motorcycle evehicle custom1 custom2" speed="31.29" length="0.30" shape="8537.16,2834.26 8536.90,2834.40"/>
    </edge>
    <edge id=":gneJ29_0" function="internal">
        <lane id=":gneJ29_0_0" index="0" allow="private emergency authority army vip passenger hov taxi bus coach delivery truck trailer motorcycle evehicle custom1 custom2" speed="31.29" length="0.25" shape="9134.37,2421.51 9134.21,2421.69"/>
    </edge>
    <edge id=":gneJ3_0" function="internal">
        <lane id=":gneJ3_0_0" index="0" allow="private emergency authority army vip passenger hov taxi bus coach delivery truck trailer motorcycle evehicle custom1 custom2" speed="31.29" length="0.10" shape="4631.61,3865.85 4631.61,3865.85"/>
    </edge>
    <edge id=":gneJ32_0" function="internal">
        <lane id=":gneJ32_0_0" index="0" allow="private emergency authority army vip passenger hov taxi bus coach delivery truck trailer motorcycle evehicle custom1 custom2" speed="31.29" length="0.10" shape="9199.58,2345.72 9199.58,2345.72"/>
    </edge>
    <edge id=":gneJ4_0" function="internal">
        <lane id=":gneJ4_0_0" index="0" allow="private emergency authority army vip passenger hov taxi bus coach delivery truck trailer motorcycle evehicle custom1 custom2" speed="31.29" length="0.29" shape="4729.96,3850.61 4729.66,3850.65"/>
    </edge>
    <edge id=":gneJ42_0" function="internal">
        <lane id=":gneJ42_0_0" index="0" allow="private emergency authority army vip passenger hov taxi bus coach delivery truck trailer motorcycle evehicle custom1 custom2" speed="31.29" length="0.27" shape="7709.87,3356.83 7709.65,3356.97"/>
    </edge>
    <edge id=":gneJ8_0" function="internal">
        <lane id=":gneJ8_0_0" index="0" allow="private emergency authority army vip passenger hov taxi bus coach delivery truck trailer motorcycle evehicle custom1 custom2" speed="31.29" length="0.28" shape="5676.87,3718.58 5676.59,3718.62"/>
    </edge>

    <edge id="124433709.427" from="gneJ39" to="gneJ18" name="Walter P Reuther Freeway" priority="13" type="highway.motorway" spreadType="center" shape="9050.26,3935.31 9046.74,3933.34 8964.85,3884.39 8829.29,3799.80 8530.58,3617.65 8289.47,3470.81 8242.91,3445.52 8212.12,3431.92 8185.41,3421.51 8159.98,3413.67 8134.07,3405.99 8102.29,3398.21 8050.97,3391.62 7999.00,3388.72 7958.82,3389.62 7919.83,3393.54 7779.30,3413.60 7437.87,3461.68 7311.68,3478.26 7225.17,3490.29">
        <lane id="124433709.427_0" index="0" allow="private emergency authority army vip passenger hov taxi bus coach delivery truck trailer motorcycle evehicle custom1 custom2" speed="31.29" length="1928.53" shape="9050.26,3935.31 9046.74,3933.34 8964.85,3884.39 8829.29,3799.80 8530.58,3617.65 8289.47,3470.81 8242.91,3445.52 8212.12,3431.92 8185.41,3421.51 8159.98,3413.67 8134.07,3405.99 8102.29,3398.21 8050.97,3391.62 7999.00,3388.72 7958.82,3389.62 7919.83,3393.54 7779.30,3413.60 7437.87,3461.68 7311.68,3478.26 7273.77,3483.53">
            <param key="origId" value="124433709"/>
        </lane>
    </edge>
    <edge id="124433730#0" from="gneJ8" to="gneJ4" priority="13" type="highway.motorway" spreadType="center" shape="5676.73,3718.60 5410.69,3751.12 5099.60,3796.90 4729.81,3850.63">
        <lane id="124433730#0_0" index="0" allow="private emergency authority army vip passenger hov taxi bus coach delivery truck trailer motorcycle evehicle custom1 custom2" speed="31.29" length="955.85" shape="5676.59,3718.62 5410.69,3751.12 5099.60,3796.90 4729.96,3850.61">
            <param key="origId" value="124433730"/>
        </lane>
    </edge>
    <edge id="124433730#1" from="gneJ3" to="62339796" priority="13" type="highway.motorway" spreadType="center">
        <lane id="124433730#1_0" index="0" allow="private emergency authority army vip passenger hov taxi bus coach delivery truck trailer motorcycle evehicle custom1 custom2" speed="31.29" length="556.89" shape="4631.61,3865.85 4080.44,3945.40">
            <param key="origId" value="124433730"/>
        </lane>
    </edge>
    <edge id="124433730#1-AddedOnRampEdge" from="gneJ4" to="gneJ3" priority="13" type="highway.motorway" spreadType="center" shape="4729.81,3850.63 4643.36,3864.15 4631.61,3865.85">
        <lane id="124433730#1-AddedOnRampEdge_0" index="0" allow="private emergency authority army vip passenger hov taxi bus coach delivery truck trailer motorcycle evehicle custom1 custom2" speed="31.29" length="99.23" acceleration="1" shape="4729.66,3850.65 4643.36,3864.15 4631.61,3865.85">
            <param key="origId" value="124433730"/>
        </lane>
    </edge>
    <edge id="124433730#2" from="gneJ1" to="4836913481" priority="13" type="highway.motorway" spreadType="center" shape="3965.41,3961.18 3858.12,3975.78 3794.76,3986.08 3720.75,3998.15 3678.12,4006.07 3614.49,4021.61 3546.07,4038.66 3491.78,4055.67 3421.61,4077.96 3367.82,4095.47 3093.27,4181.05 2740.95,4295.65 2620.09,4334.64 2383.47,4410.76 2250.75,4453.64">
        <lane id="124433730#2_0" index="0" allow="private emergency authority army vip passenger hov taxi bus coach delivery truck trailer motorcycle evehicle custom1 custom2" speed="31.29" length="1786.87" shape="3965.27,3961.20 3858.12,3975.78 3794.76,3986.08 3720.75,3998.15 3678.12,4006.07 3614.49,4021.61 3546.07,4038.66 3491.78,4055.67 3421.61,4077.96 3367.82,4095.47 3093.27,4181.05 2740.95,4295.65 2620.09,4334.64 2383.47,4410.76 2250.75,4453.64">
            <param key="origId" value="124433730 22723378 8708084"/>
        </lane>
    </edge>
    <edge id="124433730#2-AddedOnRampEdge" from="62339796" to="gneJ1" priority="13" type="highway.motorway" spreadType="center" shape="4064.71,3949.28 3965.41,3961.18">
        <lane id="124433730#2-AddedOnRampEdge_0" index="0" allow="private emergency authority army vip passenger hov taxi bus coach delivery truck trailer motorcycle evehicle custom1 custom2" speed="31.29" length="63.55" acceleration="1" shape="4028.65,3953.60 3965.55,3961.16">
            <param key="origId" value="124433730 22723378 8708084"/>
        </lane>
    </edge>
    <edge id="178253095" from="62159142" to="62339796" priority="16" type="highway.motorway_link" spreadType="center" shape="4716.22,4001.51 4612.40,3958.85 4587.36,3948.64 4544.73,3934.13 4495.38,3922.82 4454.16,3918.26 4408.94,3916.32 4365.24,3917.92 4095.27,3947.29 4064.47,3950.19">
        <lane id="178253095_0" index="0" allow="private emergency authority army vip passenger hov taxi bus coach delivery truck trailer motorcycle evehicle custom1 custom2" speed="22.22" length="651.48" shape="4716.22,4001.51 4612.40,3958.85 4587.36,3948.64 4544.73,3934.13 4495.38,3922.82 4454.16,3918.26 4408.94,3916.32 4365.24,3917.92 4095.27,3947.29 4080.82,3948.65">
            <param key="origId" value="178253095"/>
        </lane>
    </edge>
    <edge id="22723058#0" from="gneJ29" to="62290112" priority="13" type="highway.motorway" spreadType="center">
        <lane id="22723058#0_0" index="0" allow="private emergency authority army vip passenger hov taxi bus coach delivery truck trailer motorcycle evehicle custom1 custom2" speed="31.29" length="17.25" shape="9134.21,2421.69 9122.36,2434.22">
            <param key="origId" value="22723058"/>
        </lane>
    </edge>
    <edge id="22723058#1" from="62290112" to="gneJ26" priority="13" type="highway.motorway" spreadType="center" shape="9122.27,2434.32 9022.52,2534.19 8980.15,2571.53 8906.03,2629.55 8830.26,2681.28 8730.10,2738.62 8678.55,2765.88 8537.03,2834.33">
        <lane id="22723058#1_0" index="0" allow="private emergency authority army vip passenger hov taxi bus coach delivery truck trailer motorcycle evehicle custom1 custom2" speed="31.29" length="714.15" shape="9122.18,2434.41 9022.52,2534.19 8980.15,2571.53 8906.03,2629.55 8830.26,2681.28 8730.10,2738.62 8678.55,2765.88 8537.16,2834.26">
            <param key="origId" value="22723058"/>
        </lane>
    </edge>
    <edge id="341040160#0" from="gneJ24" to="4308145961" priority="13" type="highway.motorway" spreadType="center" shape="8407.12,2897.39 8073.12,3057.28 8036.51,3077.83 8002.27,3099.01">
        <lane id="341040160#0_0" index="0" allow="private emergency authority army vip passenger hov taxi bus coach delivery truck trailer motorcycle evehicle custom1 custom2" speed="31.29" length="452.39" shape="8406.99,2897.45 8073.12,3057.28 8036.51,3077.83 8002.27,3099.01">
            <param key="origId" value="341040160"/>
        </lane>
    </edge>
    <edge id="341040160#1" from="4308145961" to="4834054130" priority="13" type="highway.motorway" spreadType="center" shape="8002.27,3099.01 7968.12,3124.78 7936.92,3151.56 7883.13,3203.33">
        <lane id="341040160#1_0" index="0" allow="private emergency authority army vip passenger hov taxi bus coach delivery truck trailer motorcycle evehicle custom1 custom2" speed="31.29" length="158.41" shape="8002.27,3099.01 7968.12,3124.78 7936.92,3151.56 7883.23,3203.23">
            <param key="origId" value="341040160"/>
        </lane>
    </edge>
    <edge id="40788302" from="gneJ14" to="gneJ8" priority="13" type="highway.motorway" spreadType="center" shape="6408.84,3612.95 6220.56,3640.14 5923.33,3683.40 5876.18,3690.26 5676.73,3718.60">
        <lane id="40788302_0" index="0" allow="private emergency authority army vip passenger hov taxi bus coach delivery truck trailer motorcycle evehicle custom1 custom2" speed="31.29" length="737.97" acceleration="1" shape="6407.27,3613.18 6220.56,3640.14 5923.33,3683.40 5876.18,3690.26 5676.87,3718.58">
            <param key="origId" value="40788302 456864111"/>
        </lane>
    </edge>
    <edge id="422314897#0" from="gneJ18" to="gneJ22" name="Walter P Reuther Freeway" priority="13" type="highway.motorway" spreadType="center">
        <lane id="422314897#0_0" index="0" allow="private emergency authority army vip passenger hov taxi bus coach delivery truck trailer motorcycle evehicle custom1 custom2" speed="31.29" length="37.16" acceleration="1" shape="7223.66,3490.54 7187.01,3496.69">
            <param key="origId" value="422314897"/>
        </lane>
    </edge>
    <edge id="422314897#1" from="gneJ22" to="4815187016" name="Walter P Reuther Freeway" priority="13" type="highway.motorway" spreadType="center" shape="7186.89,3496.71 7168.55,3499.16 7013.59,3519.50 6876.84,3540.80 6853.60,3544.83">
        <lane id="422314897#1_0" index="0" allow="private emergency authority army vip passenger hov taxi bus coach delivery truck trailer motorcycle evehicle custom1 custom2" speed="31.29" length="336.66" shape="7186.77,3496.73 7168.55,3499.16 7013.59,3519.50 6876.84,3540.80 6853.60,3544.83">
            <param key="origId" value="422314897"/>
        </lane>
    </edge>
    <edge id="456864110" from="gneJ17" to="gneJ14" priority="13" type="highway.motorway" spreadType="center">
        <lane id="456864110_0" index="0" allow="private emergency authority army vip passenger hov taxi bus coach delivery truck trailer motorcycle evehicle custom1 custom2" speed="31.29" length="313.28" acceleration="1" shape="6751.12,3564.34 6440.95,3608.39">
            <param key="origId" value="456864110"/>
        </lane>
    </edge>
    <edge id="489256509" from="4815187016" to="gneJ17" name="Walter P Reuther Freeway" priority="13" type="highway.motorway" spreadType="center" shape="6853.60,3544.83 6807.69,3552.79 6751.12,3564.34">
        <lane id="489256509_0" index="0" allow="private emergency authority army vip passenger hov taxi bus coach delivery truck trailer motorcycle evehicle custom1 custom2" speed="31.29" length="104.33" shape="6853.60,3544.83 6807.69,3552.79 6751.12,3564.34">
            <param key="origId" value="489256509"/>
        </lane>
    </edge>
    <edge id="491266613" from="4834054130" to="gneJ42" priority="13" type="highway.motorway_link" spreadType="center" shape="7883.13,3203.33 7849.00,3235.12 7841.38,3242.57 7805.13,3279.13 7779.49,3304.05 7752.35,3327.24 7729.98,3343.28 7709.76,3356.90">
        <lane id="491266613_0" index="0" allow="private emergency authority army vip passenger hov taxi bus coach delivery truck trailer motorcycle evehicle custom1 custom2" speed="31.29" length="231.87" shape="7883.03,3203.43 7849.00,3235.12 7841.38,3242.57 7805.13,3279.13 7779.49,3304.05 7752.35,3327.24 7729.98,3343.28 7709.87,3356.83">
            <param key="origId" value="491266613 22723057 8667198"/>
        </lane>
    </edge>
    <edge id="491266613.232" from="gneJ42" to="gneJ18" priority="13" type="highway.motorway_link" spreadType="center" shape="7709.76,3356.90 7691.43,3368.57 7671.41,3380.02 7643.57,3393.60 7615.30,3405.87 7575.25,3420.35 7548.08,3427.95 7521.61,3434.10 7479.46,3443.25 7311.13,3472.38 7225.17,3490.29">
        <lane id="491266613.232_0" index="0" allow="private emergency authority army vip passenger hov taxi bus coach delivery truck trailer motorcycle evehicle custom1 custom2" speed="31.29" length="457.13" shape="7709.65,3356.97 7691.43,3368.57 7671.41,3380.02 7643.57,3393.60 7615.30,3405.87 7575.25,3420.35 7548.08,3427.95 7521.61,3434.10 7479.46,3443.25 7311.13,3472.38 7273.21,3480.28">
            <param key="origId" value="491266613 22723057 8667198"/>
        </lane>
    </edge>
    <edge id="491515539" from="gneJ26" to="gneJ24" priority="13" type="highway.motorway" spreadType="center">
        <lane id="491515539_0" index="0" allow="private emergency authority army vip passenger hov taxi bus coach delivery truck trailer motorcycle evehicle custom1 custom2" speed="31.29" length="144.11" shape="8536.90,2834.40 8407.25,2897.32">
            <param key="origId" value="491515539"/>
        </lane>
    </edge>
    <edge id="59440544#0" from="242854963" to="4308145956" priority="13" type="highway.motorway" spreadType="center" shape="9564.91,1601.01 9521.78,1704.86 9486.75,1783.43 9407.46,1971.56 9371.58,2046.67 9362.02,2066.83">
        <lane id="59440544#0_0" index="0" allow="private emergency authority army vip passenger hov taxi bus coach delivery truck trailer motorcycle evehicle custom1 custom2" speed="31.29" length="508.18" shape="9564.91,1601.01 9521.78,1704.86 9486.75,1783.43 9407.46,1971.56 9371.58,2046.67 9362.02,2066.83">
            <param key="origId" value="59440544"/>
        </lane>
    </edge>
    <edge id="59440544#1" from="4308145956" to="gneJ32" priority="13" type="highway.motorway" spreadType="center" shape="9362.02,2066.83 9328.79,2136.91 9284.90,2214.96 9236.02,2292.48 9207.32,2334.82 9199.58,2345.72">
        <lane id="59440544#1_0" index="0" allow="private emergency authority army vip passenger hov taxi bus coach delivery truck trailer motorcycle evehicle custom1 custom2" speed="31.29" length="323.27" shape="9362.02,2066.83 9328.79,2136.91 9284.90,2214.96 9236.02,2292.48 9207.32,2334.82 9199.58,2345.72">
            <param key="origId" value="59440544 628896231"/>
        </lane>
    </edge>
    <edge id="59440544#1-AddedOffRampEdge" from="gneJ32" to="gneJ29" priority="13" type="highway.motorway" spreadType="center" shape="9199.58,2345.72 9193.86,2353.01 9180.83,2368.97 9134.29,2421.60">
        <lane id="59440544#1-AddedOffRampEdge_0" index="0" allow="private emergency authority army vip passenger hov taxi bus coach delivery truck trailer motorcycle evehicle custom1 custom2" speed="31.29" length="100.00" shape="9199.58,2345.72 9193.86,2353.01 9180.83,2368.97 9134.37,2421.51">
            <param key="origId" value="59440544 628896231"/>
        </lane>
    </edge>
    <edge id="8666737" from="gneJ33" to="gneJ14" priority="13" type="highway.motorway_link" spreadType="center" shape="6996.87,4013.14 6992.70,3998.25 6985.63,3972.41 6971.28,3930.14 6955.07,3891.16 6945.66,3870.32 6923.67,3832.05 6893.61,3791.24 6861.21,3754.50 6827.66,3723.47 6799.40,3702.28 6772.12,3683.39 6736.42,3663.42 6699.74,3646.48 6663.83,3633.51 6628.89,3623.08 6591.74,3615.59 6550.13,3610.46 6516.38,3609.49 6458.83,3611.42 6436.79,3611.84 6408.84,3612.95">
        <lane id="8666737_0" index="0" allow="private emergency authority army vip passenger hov taxi bus coach delivery truck trailer motorcycle evehicle custom1 custom2" speed="31.29" length="754.69" shape="6996.87,4013.14 6992.70,3998.25 6985.63,3972.41 6971.28,3930.14 6955.07,3891.16 6945.66,3870.32 6923.67,3832.05 6893.61,3791.24 6861.21,3754.50 6827.66,3723.47 6799.40,3702.28 6772.12,3683.39 6736.42,3663.42 6699.74,3646.48 6663.83,3633.51 6628.89,3623.08 6591.74,3615.59 6550.13,3610.46 6516.38,3609.49 6458.83,3611.42 6441.26,3611.75">
            <param key="origId" value="8666737"/>
        </lane>
    </edge>

    <junction id="242854963" type="dead_end" x="9564.91" y="1601.01" incLanes="" intLanes="" shape="9563.43,1600.40 9566.39,1601.62"/>
    <junction id="4308145956" type="priority" x="9362.02" y="2066.83" incLanes="59440544#0_0" intLanes=":4308145956_0_0" shape="9363.47,2067.52 9360.57,2066.14 9363.47,2067.52">
        <request index="0" response="0" foes="0" cont="0"/>
    </junction>
    <junction id="4308145961" type="priority" x="8002.27" y="3099.01" incLanes="341040160#0_0" intLanes=":4308145961_0_0" shape="8003.17,3100.33 8001.49,3097.61 8001.37,3097.69 8001.30,3097.74">
        <request index="0" response="0" foes="0" cont="0"/>
    </junction>
    <junction id="4815187016" type="priority" x="6853.60" y="3544.83" incLanes="422314897#1_0" intLanes=":4815187016_0_0" shape="6853.87,3546.41 6853.33,3543.25 6853.87,3546.41">
        <request index="0" response="0" foes="0" cont="0"/>
    </junction>
    <junction id="4834054130" type="priority" x="7883.13" y="3203.33" incLanes="341040160#1_0" intLanes=":4834054130_0_0" shape="7884.34,3204.38 7882.12,3202.08 7881.93,3202.26 7884.12,3204.60">
        <request index="0" response="0" foes="0" cont="0"/>
    </junction>
    <junction id="4836913481" type="dead_end" x="2250.75" y="4453.64" incLanes="124433730#2_0" intLanes="" shape="2251.24,4455.16 2250.26,4452.12"/>
    <junction id="62159142" type="dead_end" x="4716.22" y="4001.51" incLanes="" intLanes="" shape="4716.83,4000.03 4715.61,4002.99"/>
    <junction id="62290112" type="priority" x="9122.27" y="2434.32" incLanes="22723058#0_0" intLanes=":62290112_0_0" shape="9123.52,2435.32 9121.20,2433.13 9121.05,2433.28 9123.31,2435.54">
        <request index="0" response="0" foes="0" cont="0"/>
    </junction>
    <junction id="62339796" type="priority" x="4064.50" y="3947.70" incLanes="178253095_0 124433730#1_0" intLanes=":62339796_0_0 :62339796_1_0" shape="4080.97,3950.24 4080.67,3947.06 4080.21,3943.82 4028.46,3952.01 4028.84,3955.19">
        <request index="0" response="00" foes="10" cont="0"/>
        <request index="1" response="01" foes="01" cont="0"/>
    </junction>
    <junction id="62355382" type="dead_end" x="10115.47" y="4339.02" incLanes="" intLanes="" shape="10115.47,4339.02"/>
    <junction id="gneJ1" type="priority" x="3965.41" y="3961.18" incLanes="124433730#2-AddedOnRampEdge_0" intLanes=":gneJ1_0_0" shape="3965.74,3962.75 3965.36,3959.57 3965.05,3959.61 3965.48,3962.78">
        <request index="0" response="0" foes="0" cont="0"/>
    </junction>
    <junction id="gneJ14" type="priority" x="6408.84" y="3612.95" incLanes="8666737_0 456864110_0" intLanes=":gneJ14_0_0 :gneJ14_1_0" shape="6441.32,3613.35 6441.19,3610.16 6441.18,3609.97 6440.73,3606.81 6407.04,3611.59 6407.50,3614.76 6414.65,3613.84 6419.95,3613.39 6424.35,3613.27 6428.75,3613.32 6434.10,3613.40">
        <request index="0" response="00" foes="10" cont="0"/>
        <request index="1" response="01" foes="01" cont="0"/>
    </junction>