<?xml version="1.0" encoding="UTF-8"?>
<!-- generated on 2018-11-12 09:43:03.609000 by $Id$ via randomTrips.py
  options: 
-->
<routes xmlns:xsi="http://www.w3.org/2001/XMLSchema-instance" xsi:noNamespaceSchemaLocation="http://sumo.dlr.de/xsd/routes_file.xsd">
    <route id="59440544#0" edges="59440544#0 59440544#1 59440544#1-AddedOffRampEdge 22723058#0 22723058#1 491515539 341040160#0 341040160#1 491266613 491266613.232 422314897#0 422314897#1 489256509 456864110 40788302 124433730#0 124433730#1-AddedOnRampEdge 124433730#1 124433730#2-AddedOnRampEdge 124433730#2"/>
    <route id="124433709.427" edges="124433709.427 422314897#0 422314897#1 489256509 456864110 40788302 124433730#0 124433730#1-AddedOnRampEdge 124433730#1 124433730#2-AddedOnRampEdge 124433730#2"/>
    <route id="8666737" edges="8666737 40788302 124433730#0 124433730#1-AddedOnRampEdge 124433730#1 124433730#2-AddedOnRampEdge 124433730#2"/>
    <route id="178253095" edges="178253095 124433730#2-AddedOnRampEdge 124433730#2"/>
</routes>
