<?xml version="1.0" encoding="UTF-8"?>

<!-- generated on 2022-05-01 22:35:59 by Eclipse SUMO netedit Version 1.12.0
<configuration xmlns:xsi="http://www.w3.org/2001/XMLSchema-instance" xsi:noNamespaceSchemaLocation="http://sumo.dlr.de/xsd/netconvertConfiguration.xsd">

    <input>
        <sumo-net-file value="multilane-i696-three-merges.net.xml"/>
    </input>

    <output>
        <output-file value="multilane-i696-three-merges.net.xml"/>
        <output.street-names value="true"/>
    </output>

    <processing>
        <geometry.min-radius.fix.railways value="false"/>
        <geometry.max-grade.fix value="false"/>
        <offset.disable-normalization value="true"/>
        <lefthand value="false"/>
    </processing>

    <junctions>
        <no-turnarounds value="true"/>
        <junctions.corner-detail value="5"/>
        <junctions.limit-turn-speed value="5.5"/>
        <rectangular-lane-cut value="false"/>
    </junctions>

    <pedestrian>
        <walkingareas value="false"/>
    </pedestrian>

    <report>
        <aggregate-warnings value="5"/>
    </report>

</configuration>
-->

<net version="1.9" junctionCornerDetail="5" limitTurnSpeed="5.50" xmlns:xsi="http://www.w3.org/2001/XMLSchema-instance" xsi:noNamespaceSchemaLocation="http://sumo.dlr.de/xsd/net_file.xsd">

    <location netOffset="-291727.60,-4702987.13" convBoundary="2250.75,1601.01,9564.91,4453.64" origBoundary="-83.535679,42.452940,-83.398128,42.524242" projParameter="+proj=utm +zone=17 +ellps=WGS84 +datum=WGS84 +units=m +no_defs"/>

    <type id="highway.bridleway" priority="1" numLanes="1" speed="2.78" allow="pedestrian" oneway="1" width="2.00"/>
    <type id="highway.bus_guideway" priority="1" numLanes="1" speed="27.78" allow="bus" oneway="1"/>
    <type id="highway.cycleway" priority="1" numLanes="1" speed="8.33" allow="bicycle" oneway="0" width="1.00"/>
    <type id="highway.footway" priority="1" numLanes="1" speed="2.78" allow="pedestrian" oneway="1" width="2.00"/>
    <type id="highway.ford" priority="1" numLanes="1" speed="2.78" allow="army" oneway="0"/>
    <type id="highway.living_street" priority="3" numLanes="1" speed="2.78" disallow="tram rail_urban rail rail_electric ship" oneway="0"/>
    <type id="highway.motorway" priority="13" numLanes="2" speed="44.44" allow="private emergency authority army vip passenger hov taxi bus coach delivery truck trailer motorcycle evehicle custom1 custom2" oneway="1"/>
    <type id="highway.motorway_link" priority="12" numLanes="1" speed="22.22" allow="private emergency authority army vip passenger hov taxi bus coach delivery truck trailer motorcycle evehicle custom1 custom2" oneway="1"/>
    <type id="highway.path" priority="1" numLanes="1" speed="2.78" allow="pedestrian bicycle" oneway="1" width="2.00"/>
    <type id="highway.pedestrian" priority="1" numLanes="1" speed="2.78" allow="pedestrian" oneway="1" width="2.00"/>
    <type id="highway.primary" priority="9" numLanes="2" speed="27.78" disallow="tram rail_urban rail rail_electric ship" oneway="0"/>
    <type id="highway.primary_link" priority="8" numLanes="1" speed="22.22" disallow="tram rail_urban rail rail_electric ship" oneway="0"/>
    <type id="highway.raceway" priority="14" numLanes="2" speed="83.33" allow="vip" oneway="0"/>
    <type id="highway.residential" priority="4" numLanes="1" speed="13.89" disallow="tram rail_urban rail rail_electric ship" oneway="0"/>
    <type id="highway.secondary" priority="7" numLanes="2" speed="27.78" disallow="tram rail_urban rail rail_electric ship" oneway="0"/>
    <type id="highway.secondary_link" priority="6" numLanes="1" speed="22.22" disallow="tram rail_urban rail rail_electric ship" oneway="0"/>
    <type id="highway.service" priority="2" numLanes="1" speed="5.56" allow="pedestrian delivery bicycle" oneway="0"/>
    <type id="highway.stairs" priority="1" numLanes="1" speed="1.39" allow="pedestrian" oneway="1" width="2.00"/>
    <type id="highway.step" priority="1" numLanes="1" speed="1.39" allow="pedestrian" oneway="1" width="2.00"/>
    <type id="highway.steps" priority="1" numLanes="1" speed="1.39" allow="pedestrian" oneway="1" width="2.00"/>
    <type id="highway.tertiary" priority="6" numLanes="1" speed="22.22" disallow="tram rail_urban rail rail_electric ship" oneway="0"/>
    <type id="highway.tertiary_link" priority="5" numLanes="1" speed="22.22" disallow="tram rail_urban rail rail_electric ship" oneway="0"/>
    <type id="highway.track" priority="1" numLanes="1" speed="5.56" disallow="tram rail_urban rail rail_electric ship" oneway="0"/>
    <type id="highway.trunk" priority="11" numLanes="2" speed="27.78" disallow="pedestrian bicycle tram rail_urban rail rail_electric ship" oneway="0"/>
    <type id="highway.trunk_link" priority="10" numLanes="1" speed="22.22" disallow="pedestrian bicycle tram rail_urban rail rail_electric ship" oneway="0"/>
    <type id="highway.unclassified" priority="5" numLanes="1" speed="13.89" disallow="tram rail_urban rail rail_electric ship" oneway="0"/>
    <type id="highway.unsurfaced" priority="1" numLanes="1" speed="8.33" disallow="tram rail_urban rail rail_electric ship" oneway="0"/>
    <type id="railway.light_rail" priority="15" numLanes="1" speed="27.78" allow="rail_urban" oneway="1"/>
    <type id="railway.preserved" priority="15" numLanes="1" speed="27.78" allow="rail" oneway="1"/>
    <type id="railway.rail" priority="15" numLanes="1" speed="83.33" allow="rail rail_electric" oneway="1"/>
    <type id="railway.subway" priority="15" numLanes="1" speed="27.78" allow="rail_urban" oneway="1"/>
    <type id="railway.tram" priority="15" numLanes="1" speed="13.89" allow="tram" oneway="1"/>

    <edge id=":4308145956_0" function="internal">
        <lane id=":4308145956_0_0" index="0" allow="private emergency authority army vip passenger hov taxi bus coach delivery truck trailer motorcycle evehicle custom1 custom2" speed="31.29" length="0.10" shape="9362.02,2066.83 9362.02,2066.83"/>
    </edge>
    <edge id=":4308145961_0" function="internal">
        <lane id=":4308145961_0_0" index="0" allow="private emergency authority army vip passenger hov taxi bus coach delivery truck trailer motorcycle evehicle custom1 custom2" speed="31.29" length="0.10" shape="8002.27,3099.01 8002.27,3099.01"/>
    </edge>
    <edge id=":4815187016_0" function="internal">
        <lane id=":4815187016_0_0" index="0" allow="private emergency authority army vip passenger hov taxi bus coach delivery truck trailer motorcycle evehicle custom1 custom2" speed="31.29" length="0.10" shape="6854.15,3547.98 6854.15,3547.98"/>
        <lane id=":4815187016_0_1" index="1" allow="private emergency authority army vip passenger hov taxi bus coach delivery truck trailer motorcycle evehicle custom1 custom2" speed="31.29" length="0.10" shape="6853.60,3544.83 6853.60,3544.83"/>
        <lane id=":4815187016_0_2" index="2" allow="private emergency authority army vip passenger hov taxi bus coach delivery truck trailer motorcycle evehicle custom1 custom2" speed="31.29" length="0.10" shape="6853.05,3541.68 6853.05,3541.68"/>
    </edge>
    <edge id=":4834054130_0" function="internal">
        <lane id=":4834054130_0_0" index="0" allow="private emergency authority army vip passenger hov taxi bus coach delivery truck trailer motorcycle evehicle custom1 custom2" speed="31.29" length="0.29" shape="7883.23,3203.23 7883.03,3203.43"/>
    </edge>
    <edge id=":62290112_0" function="internal">
        <lane id=":62290112_0_0" index="0" allow="private emergency authority army vip passenger hov taxi bus coach delivery truck trailer motorcycle evehicle custom1 custom2" speed="31.29" length="0.26" shape="9122.36,2434.22 9122.18,2434.41"/>
    </edge>
    <edge id=":62339796_0" function="internal">
        <lane id=":62339796_0_0" index="0" allow="private emergency authority army vip passenger hov taxi bus coach delivery truck trailer motorcycle evehicle custom1 custom2" speed="26.75" length="67.90" shape="4135.12,3942.67 4067.67,3950.46"/>
    </edge>
    <edge id=":62339796_1" function="internal">
        <lane id=":62339796_1_0" index="0" allow="private emergency authority army vip passenger hov taxi bus coach delivery truck trailer motorcycle evehicle custom1 custom2" speed="31.29" length="68.04" shape="4134.82,3939.35 4067.67,3950.46"/>
        <lane id=":62339796_1_1" index="1" allow="private emergency authority army vip passenger hov taxi bus coach delivery truck trailer motorcycle evehicle custom1 custom2" speed="31.29" length="68.04" shape="4134.37,3936.18 4067.24,3947.29"/>
        <lane id=":62339796_1_2" index="2" allow="private emergency authority army vip passenger hov taxi bus coach delivery truck trailer motorcycle evehicle custom1 custom2" speed="31.29" length="68.04" shape="4133.92,3933.02 4066.81,3944.12"/>
    </edge>
    <edge id=":gneJ1_0" function="internal">
        <lane id=":gneJ1_0_0" index="0" allow="private emergency authority army vip passenger hov taxi bus coach delivery truck trailer motorcycle evehicle custom1 custom2" speed="31.29" length="0.30" shape="4046.44,3953.37 4046.14,3953.41"/>
        <lane id=":gneJ1_0_1" index="1" allow="private emergency authority army vip passenger hov taxi bus coach delivery truck trailer motorcycle evehicle custom1 custom2" speed="31.29" length="0.30" shape="4046.01,3950.20 4045.71,3950.24"/>
        <lane id=":gneJ1_0_2" index="2" allow="private emergency authority army vip passenger hov taxi bus coach delivery truck trailer motorcycle evehicle custom1 custom2" speed="31.29" length="0.30" shape="4045.57,3947.03 4045.28,3947.07"/>
    </edge>
    <edge id=":gneJ14_0" function="internal">
        <lane id=":gneJ14_0_0" index="0" allow="private emergency authority army vip passenger hov taxi bus coach delivery truck trailer motorcycle evehicle custom1 custom2" speed="31.29" length="35.88" shape="6471.00,3611.01 6465.38,3610.99 6456.78,3610.95 6446.34,3611.28 6435.18,3612.38"/>
    </edge>
    <edge id=":gneJ14_1" function="internal">
        <lane id=":gneJ14_1_0" index="0" allow="private emergency authority army vip passenger hov taxi bus coach delivery truck trailer motorcycle evehicle custom1 custom2" speed="31.29" length="35.85" shape="6470.67,3607.40 6435.18,3612.38"/>
        <lane id=":gneJ14_1_1" index="1" allow="private emergency authority army vip passenger hov taxi bus coach delivery truck trailer motorcycle evehicle custom1 custom2" speed="31.29" length="35.85" shape="6470.22,3604.23 6434.72,3609.21"/>
        <lane id=":gneJ14_1_2" index="2" allow="private emergency authority army vip passenger hov taxi bus coach delivery truck trailer motorcycle evehicle custom1 custom2" speed="31.29" length="35.85" shape="6469.77,3601.06 6434.27,3606.05"/>
    </edge>
    <edge id=":gneJ17_0" function="internal">
        <lane id=":gneJ17_0_0" index="0" allow="private emergency authority army vip passenger hov taxi bus coach delivery truck trailer motorcycle evehicle custom1 custom2" speed="31.29" length="0.29" shape="6751.90,3567.45 6751.43,3567.53"/>
        <lane id=":gneJ17_0_1" index="1" allow="private emergency authority army vip passenger hov taxi bus coach delivery truck trailer motorcycle evehicle custom1 custom2" speed="31.29" length="0.29" shape="6751.26,3564.31 6750.98,3564.36"/>
        <lane id=":gneJ17_0_2" index="2" allow="private emergency authority army vip passenger hov taxi bus coach delivery truck trailer motorcycle evehicle custom1 custom2" speed="31.29" length="0.29" shape="6750.62,3561.18 6750.53,3561.19"/>
    </edge>
    <edge id=":gneJ18_0" function="internal">
        <lane id=":gneJ18_0_0" index="0" allow="private emergency authority army vip passenger hov taxi bus coach delivery truck trailer motorcycle evehicle custom1 custom2" speed="31.29" length="34.93" shape="7314.40,3481.13 7279.82,3485.90"/>
        <lane id=":gneJ18_0_1" index="1" allow="private emergency authority army vip passenger hov taxi bus coach delivery truck trailer motorcycle evehicle custom1 custom2" speed="31.29" length="34.93" shape="7313.95,3477.96 7279.35,3482.73"/>
        <lane id=":gneJ18_0_2" index="2" allow="private emergency authority army vip passenger hov taxi bus coach delivery truck trailer motorcycle evehicle custom1 custom2" speed="31.29" length="34.93" shape="7313.50,3474.79 7278.89,3479.56"/>
    </edge>
    <edge id=":gneJ18_3" function="internal">
        <lane id=":gneJ18_3_0" index="0" allow="private emergency authority army vip passenger hov taxi bus coach delivery truck trailer motorcycle evehicle custom1 custom2" speed="31.29" length="34.91" shape="7312.84,3471.47 7278.89,3479.56"/>
    </edge>
    <edge id=":gneJ22_0" function="internal">
        <lane id=":gneJ22_0_0" index="0" allow="private emergency authority army vip passenger hov taxi bus coach delivery truck trailer motorcycle evehicle custom1 custom2" speed="31.29" length="0.30" shape="7186.88,3499.54 7186.62,3499.58"/>
        <lane id=":gneJ22_0_1" index="1" allow="private emergency authority army vip passenger hov taxi bus coach delivery truck trailer motorcycle evehicle custom1 custom2" speed="31.29" length="0.30" shape="7186.42,3496.38 7186.12,3496.42"/>
        <lane id=":gneJ22_0_2" index="2" allow="private emergency authority army vip passenger hov taxi bus coach delivery truck trailer motorcycle evehicle custom1 custom2" speed="31.29" length="0.30" shape="7185.95,3493.21 7185.63,3493.26"/>
    </edge>
    <edge id=":gneJ24_0" function="internal">
        <lane id=":gneJ24_0_0" index="0" allow="private emergency authority army vip passenger hov taxi bus coach delivery truck trailer motorcycle evehicle custom1 custom2" speed="31.29" length="0.30" shape="8407.25,2897.32 8406.99,2897.45"/>
    </edge>
    <edge id=":gneJ26_0" function="internal">
        <lane id=":gneJ26_0_0" index="0" allow="private emergency authority army vip passenger hov taxi bus coach delivery truck trailer motorcycle evehicle custom1 custom2" speed="31.29" length="0.30" shape="8537.16,2834.26 8536.90,2834.40"/>
    </edge>
    <edge id=":gneJ29_0" function="internal">
        <lane id=":gneJ29_0_0" index="0" allow="private emergency authority army vip passenger hov taxi bus coach delivery truck trailer motorcycle evehicle custom1 custom2" speed="31.29" length="0.25" shape="9134.37,2421.51 9134.21,2421.69"/>
    </edge>
    <edge id=":gneJ3_0" function="internal">
        <lane id=":gneJ3_0_0" index="0" allow="private emergency authority army vip passenger hov taxi bus coach delivery truck trailer motorcycle evehicle custom1 custom2" speed="31.29" length="0.30" shape="4632.22,3869.00 4631.91,3869.04"/>
        <lane id=":gneJ3_0_1" index="1" allow="private emergency authority army vip passenger hov taxi bus coach delivery truck trailer motorcycle evehicle custom1 custom2" speed="31.29" length="0.30" shape="4631.76,3865.83 4631.46,3865.87"/>
        <lane id=":gneJ3_0_2" index="2" allow="private emergency authority army vip passenger hov taxi bus coach delivery truck trailer motorcycle evehicle custom1 custom2" speed="31.29" length="0.30" shape="4631.30,3862.66 4631.01,3862.70"/>
    </edge>
    <edge id=":gneJ32_0" function="internal">
        <lane id=":gneJ32_0_0" index="0" allow="private emergency authority army vip passenger hov taxi bus coach delivery truck trailer motorcycle evehicle custom1 custom2" speed="31.29" length="0.10" shape="9199.58,2345.72 9199.58,2345.72"/>
    </edge>
    <edge id=":gneJ4_0" function="internal">
        <lane id=":gneJ4_0_0" index="0" allow="private emergency authority army vip passenger hov taxi bus coach delivery truck trailer motorcycle evehicle custom1 custom2" speed="31.29" length="0.29" shape="4730.42,3853.78 4730.16,3853.81"/>
        <lane id=":gneJ4_0_1" index="1" allow="private emergency authority army vip passenger hov taxi bus coach delivery truck trailer motorcycle evehicle custom1 custom2" speed="31.29" length="0.29" shape="4729.96,3850.61 4729.66,3850.65"/>
        <lane id=":gneJ4_0_2" index="2" allow="private emergency authority army vip passenger hov taxi bus coach delivery truck trailer motorcycle evehicle custom1 custom2" speed="31.29" length="0.29" shape="4729.50,3847.44 4729.17,3847.49"/>
    </edge>
    <edge id=":gneJ42_0" function="internal">
        <lane id=":gneJ42_0_0" index="0" allow="private emergency authority army vip passenger hov taxi bus coach delivery truck trailer motorcycle evehicle custom1 custom2" speed="31.29" length="0.27" shape="7709.87,3356.83 7709.65,3356.97"/>
    </edge>
    <edge id=":gneJ8_0" function="internal">
        <lane id=":gneJ8_0_0" index="0" allow="private emergency authority army vip passenger hov taxi bus coach delivery truck trailer motorcycle evehicle custom1 custom2" speed="31.29" length="0.28" shape="5677.32,3721.75 5676.98,3721.79"/>
        <lane id=":gneJ8_0_1" index="1" allow="private emergency authority army vip passenger hov taxi bus coach delivery truck trailer motorcycle evehicle custom1 custom2" speed="31.29" length="0.28" shape="5676.87,3718.58 5676.59,3718.62"/>
        <lane id=":gneJ8_0_2" index="2" allow="private emergency authority army vip passenger hov taxi bus coach delivery truck trailer motorcycle evehicle custom1 custom2" speed="31.29" length="0.28" shape="5676.42,3715.41 5676.20,3715.44"/>
    </edge>

    <edge id="124433709.427" from="gneJ39" to="gneJ18" name="Walter P Reuther Freeway" priority="13" type="highway.motorway" spreadType="center" shape="9050.26,3935.31 9046.74,3933.34 8964.85,3884.39 8829.29,3799.80 8530.58,3617.65 8289.47,3470.81 8242.91,3445.52 8212.12,3431.92 8185.41,3421.51 8159.98,3413.67 8134.07,3405.99 8102.29,3398.21 8050.97,3391.62 7999.00,3388.72 7958.82,3389.62 7919.83,3393.54 7779.30,3413.60 7437.87,3461.68 7311.68,3478.26 7254.50,3486.38">
        <lane id="124433709.427_0" index="0" allow="private emergency authority army vip passenger hov taxi bus coach delivery truck trailer motorcycle evehicle custom1 custom2" speed="31.29" length="1887.97" shape="9048.70,3938.10 9045.14,3936.11 8963.18,3887.12 8827.61,3802.52 8528.91,3620.38 8287.87,3473.58 8241.50,3448.39 8210.89,3434.88 8184.36,3424.53 8159.05,3416.73 8133.23,3409.08 8101.70,3401.36 8050.68,3394.81 7998.95,3391.92 7959.02,3392.82 7920.22,3396.72 7779.75,3416.77 7438.30,3464.85 7314.40,3481.13">
            <param key="origId" value="124433709"/>
        </lane>
        <lane id="124433709.427_1" index="1" allow="private emergency authority army vip passenger hov taxi bus coach delivery truck trailer motorcycle evehicle custom1 custom2" speed="31.29" length="1887.97" shape="9050.26,3935.31 9046.74,3933.34 8964.85,3884.39 8829.29,3799.80 8530.58,3617.65 8289.47,3470.81 8242.91,3445.52 8212.12,3431.92 8185.41,3421.51 8159.98,3413.67 8134.07,3405.99 8102.29,3398.21 8050.97,3391.62 7999.00,3388.72 7958.82,3389.62 7919.83,3393.54 7779.30,3413.60 7437.87,3461.68 7313.95,3477.96">
            <param key="origId" value="124433709"/>
        </lane>
        <lane id="124433709.427_2" index="2" allow="private emergency authority army vip passenger hov taxi bus coach delivery truck trailer motorcycle evehicle custom1 custom2" speed="31.29" length="1887.97" shape="9051.82,3932.52 9048.34,3930.57 8966.52,3881.66 8830.97,3797.08 8532.25,3614.92 8291.07,3468.04 8244.32,3442.65 8213.35,3428.96 8186.46,3418.49 8160.91,3410.61 8134.91,3402.90 8102.88,3395.06 8051.26,3388.43 7999.05,3385.52 7958.62,3386.42 7919.44,3390.36 7778.85,3410.43 7437.44,3458.51 7313.50,3474.79">
            <param key="origId" value="124433709"/>
        </lane>
    </edge>
    <edge id="124433730#0" from="gneJ8" to="gneJ4" priority="13" type="highway.motorway" spreadType="center" shape="5676.73,3718.60 5410.69,3751.12 5099.60,3796.90 4729.81,3850.63">
        <lane id="124433730#0_0" index="0" allow="private emergency authority army vip passenger hov taxi bus coach delivery truck trailer motorcycle evehicle custom1 custom2" speed="31.29" length="955.85" shape="5676.98,3721.79 5411.12,3754.29 5100.06,3800.07 4730.42,3853.78">
            <param key="origId" value="124433730"/>
        </lane>
        <lane id="124433730#0_1" index="1" allow="private emergency authority army vip passenger hov taxi bus coach delivery truck trailer motorcycle evehicle custom1 custom2" speed="31.29" length="955.85" shape="5676.59,3718.62 5410.69,3751.12 5099.60,3796.90 4729.96,3850.61">
            <param key="origId" value="124433730"/>
        </lane>
        <lane id="124433730#0_2" index="2" allow="private emergency authority army vip passenger hov taxi bus coach delivery truck trailer motorcycle evehicle custom1 custom2" speed="31.29" length="955.85" shape="5676.20,3715.44 5410.26,3747.95 5099.14,3793.73 4729.50,3847.44">
            <param key="origId" value="124433730"/>
        </lane>
    </edge>
    <edge id="124433730#1" from="gneJ3" to="62339796" priority="13" type="highway.motorway" spreadType="center">
        <lane id="124433730#1_0" index="0" allow="private emergency authority army vip passenger hov taxi bus coach delivery truck trailer motorcycle evehicle custom1 custom2" speed="31.29" length="502.04" shape="4631.91,3869.04 4134.82,3939.35">
            <param key="origId" value="124433730"/>
        </lane>
        <lane id="124433730#1_1" index="1" allow="private emergency authority army vip passenger hov taxi bus coach delivery truck trailer motorcycle evehicle custom1 custom2" speed="31.29" length="502.04" shape="4631.46,3865.87 4134.37,3936.18">
            <param key="origId" value="124433730"/>
        </lane>
        <lane id="124433730#1_2" index="2" allow="private emergency authority army vip passenger hov taxi bus coach delivery truck trailer motorcycle evehicle custom1 custom2" speed="31.29" length="502.04" shape="4631.01,3862.70 4133.92,3933.02">
            <param key="origId" value="124433730"/>
        </lane>
    </edge>
    <edge id="124433730#1-AddedOnRampEdge" from="gneJ4" to="gneJ3" priority="13" type="highway.motorway" spreadType="center" shape="4729.81,3850.63 4643.36,3864.15 4631.61,3865.85">
        <lane id="124433730#1-AddedOnRampEdge_0" index="0" allow="private emergency authority army vip passenger hov taxi bus coach delivery truck trailer motorcycle evehicle custom1 custom2" speed="31.29" length="99.08" acceleration="1" shape="4730.16,3853.81 4643.84,3867.31 4632.22,3869.00">
            <param key="origId" value="124433730"/>
        </lane>
        <lane id="124433730#1-AddedOnRampEdge_1" index="1" allow="private emergency authority army vip passenger hov taxi bus coach delivery truck trailer motorcycle evehicle custom1 custom2" speed="31.29" length="99.08" shape="4729.66,3850.65 4643.36,3864.15 4631.76,3865.83">
            <param key="origId" value="124433730"/>
        </lane>
        <lane id="124433730#1-AddedOnRampEdge_2" index="2" allow="private emergency authority army vip passenger hov taxi bus coach delivery truck trailer motorcycle evehicle custom1 custom2" speed="31.29" length="99.08" shape="4729.17,3847.49 4642.88,3860.99 4631.30,3862.66">
            <param key="origId" value="124433730"/>
        </lane>
    </edge>
    <edge id="124433730#2" from="gneJ1" to="4836913481" priority="13" type="highway.motorway" spreadType="center" shape="4045.86,3950.22 3858.12,3975.78 3794.76,3986.08 3720.75,3998.15 3678.12,4006.07 3614.49,4021.61 3546.07,4038.66 3491.78,4055.67 3421.61,4077.96 3367.82,4095.47 3093.27,4181.05 2740.95,4295.65 2620.09,4334.64 2383.47,4410.76 2250.75,4453.64">
        <lane id="124433730#2_0" index="0" allow="private emergency authority army vip passenger hov taxi bus coach delivery truck trailer motorcycle evehicle custom1 custom2" speed="31.29" length="1868.06" shape="4046.14,3953.41 3858.59,3978.95 3795.27,3989.24 3721.30,4001.30 3678.79,4009.20 3615.26,4024.72 3546.94,4041.74 3492.74,4058.72 3422.59,4081.01 3368.79,4098.52 3094.24,4184.10 2741.94,4298.69 2621.07,4337.69 2384.45,4413.81 2251.73,4456.69">
            <param key="origId" value="124433730 22723378 8708084"/>
        </lane>
        <lane id="124433730#2_1" index="1" allow="private emergency authority army vip passenger hov taxi bus coach delivery truck trailer motorcycle evehicle custom1 custom2" speed="31.29" length="1868.06" shape="4045.71,3950.24 3858.12,3975.78 3794.76,3986.08 3720.75,3998.15 3678.12,4006.07 3614.49,4021.61 3546.07,4038.66 3491.78,4055.67 3421.61,4077.96 3367.82,4095.47 3093.27,4181.05 2740.95,4295.65 2620.09,4334.64 2383.47,4410.76 2250.75,4453.64">
            <param key="origId" value="124433730 22723378 8708084"/>
        </lane>
        <lane id="124433730#2_2" index="2" allow="private emergency authority army vip passenger hov taxi bus coach delivery truck trailer motorcycle evehicle custom1 custom2" speed="31.29" length="1868.06" shape="4045.28,3947.07 3857.65,3972.61 3794.25,3982.92 3720.20,3995.00 3677.45,4002.94 3613.72,4018.50 3545.20,4035.58 3490.82,4052.62 3420.63,4074.91 3366.85,4092.42 3092.30,4178.00 2739.96,4292.61 2619.11,4331.59 2382.49,4407.71 2249.77,4450.59">
            <param key="origId" value="124433730 22723378 8708084"/>
        </lane>
    </edge>
    <edge id="124433730#2-AddedOnRampEdge" from="62339796" to="gneJ1" priority="13" type="highway.motorway" spreadType="center" shape="4067.24,3947.29 4045.86,3950.22">
        <lane id="124433730#2-AddedOnRampEdge_0" index="0" allow="private emergency authority army vip passenger hov taxi bus coach delivery truck trailer motorcycle evehicle custom1 custom2" speed="31.29" length="21.43" acceleration="1" shape="4067.67,3950.46 4046.44,3953.37">
            <param key="origId" value="124433730 22723378 8708084"/>
        </lane>
        <lane id="124433730#2-AddedOnRampEdge_1" index="1" allow="private emergency authority army vip passenger hov taxi bus coach delivery truck trailer motorcycle evehicle custom1 custom2" speed="31.29" length="21.43" shape="4067.24,3947.29 4046.01,3950.20">
            <param key="origId" value="124433730 22723378 8708084"/>
        </lane>
        <lane id="124433730#2-AddedOnRampEdge_2" index="2" allow="private emergency authority army vip passenger hov taxi bus coach delivery truck trailer motorcycle evehicle custom1 custom2" speed="31.29" length="21.43" shape="4066.81,3944.12 4045.57,3947.03">
            <param key="origId" value="124433730 22723378 8708084"/>
        </lane>
    </edge>
    <edge id="178253095" from="62159142" to="62339796" priority="16" type="highway.motorway_link" spreadType="center" shape="4716.22,4001.51 4612.40,3958.85 4587.36,3948.64 4544.73,3934.13 4495.38,3922.82 4454.16,3918.26 4408.94,3916.32 4365.24,3917.92 4093.68,3947.13 4067.00,3948.20">
        <lane id="178253095_0" index="0" allow="private emergency authority army vip passenger hov taxi bus coach delivery truck trailer motorcycle evehicle custom1 custom2" speed="22.22" length="596.85" shape="4716.22,4001.51 4612.40,3958.85 4587.36,3948.64 4544.73,3934.13 4495.38,3922.82 4454.16,3918.26 4408.94,3916.32 4365.24,3917.92 4135.12,3942.67">
            <param key="origId" value="178253095"/>
        </lane>
    </edge>
    <edge id="22723058#0" from="gneJ29" to="62290112" priority="13" type="highway.motorway" spreadType="center">
        <lane id="22723058#0_0" index="0" allow="private emergency authority army vip passenger hov taxi bus coach delivery truck trailer motorcycle evehicle custom1 custom2" speed="31.29" length="17.25" shape="9134.21,2421.69 9122.36,2434.22">
            <param key="origId" value="22723058"/>
        </lane>
    </edge>
    <edge id="22723058#1" from="62290112" to="gneJ26" priority="13" type="highway.motorway" spreadType="center" shape="9122.27,2434.32 9022.52,2534.19 8980.15,2571.53 8906.03,2629.55 8830.26,2681.28 8730.10,2738.62 8678.55,2765.88 8537.03,2834.33">
        <lane id="22723058#1_0" index="0" allow="private emergency authority army vip passenger hov taxi bus coach delivery truck trailer motorcycle evehicle custom1 custom2" speed="31.29" length="714.15" shape="9122.18,2434.41 9022.52,2534.19 8980.15,2571.53 8906.03,2629.55 8830.26,2681.28 8730.10,2738.62 8678.55,2765.88 8537.16,2834.26">
            <param key="origId" value="22723058"/>
        </lane>
    </edge>
    <edge id="341040160#0" from="gneJ24" to="4308145961" priority="13" type="highway.motorway" spreadType="center" shape="8407.12,2897.39 8073.12,3057.28 8036.51,3077.83 8002.27,3099.01">
        <lane id="341040160#0_0" index="0" allow="private emergency authority army vip passenger hov taxi bus coach delivery truck trailer motorcycle evehicle custom1 custom2" speed="31.29" length="452.39" shape="8406.99,2897.45 8073.12,3057.28 8036.51,3077.83 8002.27,3099.01">
            <param key="origId" value="341040160"/>
        </lane>
    </edge>
    <edge id="341040160#1" from="4308145961" to="4834054130" priority="13" type="highway.motorway" spreadType="center" shape="8002.27,3099.01 7968.12,3124.78 7936.92,3151.56 7883.13,3203.33">
        <lane id="341040160#1_0" index="0" allow="private emergency authority army vip passenger hov taxi bus coach delivery truck trailer motorcycle evehicle custom1 custom2" speed="31.29" length="158.41" shape="8002.27,3099.01 7968.12,3124.78 7936.92,3151.56 7883.23,3203.23">
            <param key="origId" value="341040160"/>
        </lane>
    </edge>
    <edge id="40788302" from="gneJ14" to="gneJ8" priority="13" type="highway.motorway" spreadType="center" shape="6408.84,3612.95 6220.56,3640.14 5923.33,3683.40 5876.18,3690.26 5676.73,3718.60">
        <lane id="40788302_0" index="0" allow="private emergency authority army vip passenger hov taxi bus coach delivery truck trailer motorcycle evehicle custom1 custom2" speed="31.29" length="765.71" acceleration="1" shape="6435.18,3612.38 6221.02,3643.31 5923.79,3686.57 5876.64,3693.43 5677.32,3721.75">
            <param key="origId" value="40788302 456864111"/>
        </lane>